
OS:Version,
  {225fabd7-d209-4b88-8bff-cff21b2b6803}, !- Handle
  1.14.0;                                 !- Version Identifier

OS:Material,
  {65d2b7b6-638f-4984-bea9-1ff3fa8a7f1b}, !- Handle
  I01 25mm insulation board,              !- Name
  MediumSmooth,                           !- Roughness
  0.0254,                                 !- Thickness {m}
  0.03,                                   !- Conductivity {W/m-K}
  43,                                     !- Density {kg/m3}
  1210;                                   !- Specific Heat {J/kg-K}

OS:Material,
  {8a61da70-00c4-4f11-83a6-4a0be20ab374}, !- Handle
  G01a 19mm gypsum board,                 !- Name
  MediumSmooth,                           !- Roughness
  0.019,                                  !- Thickness {m}
  0.16,                                   !- Conductivity {W/m-K}
  800,                                    !- Density {kg/m3}
  1090;                                   !- Specific Heat {J/kg-K}

OS:Material,
  {eec744c8-2526-4cbe-ae10-0a6084c165da}, !- Handle
  F16 Acoustic tile,                      !- Name
  Smooth,                                 !- Roughness
  0.0191,                                 !- Thickness {m}
  0.06,                                   !- Conductivity {W/m-K}
  368,                                    !- Density {kg/m3}
  590;                                    !- Specific Heat {J/kg-K}

OS:Material,
  {883dc16a-9c1b-4cfd-adf7-32e60b76ecb7}, !- Handle
  Metal Decking,                          !- Name
  Smooth,                                 !- Roughness
  0.0015,                                 !- Thickness {m}
  45.006,                                 !- Conductivity {W/m-K}
  7680,                                   !- Density {kg/m3}
  418.4;                                  !- Specific Heat {J/kg-K}

OS:Material,
  {96317332-349e-496a-a8f8-750aeeda7316}, !- Handle
  M11 100mm lightweight concrete,         !- Name
  MediumRough,                            !- Roughness
  0.1016,                                 !- Thickness {m}
  0.53,                                   !- Conductivity {W/m-K}
  1280,                                   !- Density {kg/m3}
  840;                                    !- Specific Heat {J/kg-K}

OS:Material,
  {322324f2-ce4f-4fe8-994b-90bf58afaeb5}, !- Handle
  G05 25mm wood,                          !- Name
  MediumRough,                            !- Roughness
  0.0254,                                 !- Thickness {m}
  0.15,                                   !- Conductivity {W/m-K}
  608,                                    !- Density {kg/m3}
  1630;                                   !- Specific Heat {J/kg-K}

OS:Material,
  {e0e7be90-a3ac-4d67-a631-d395037b2a5e}, !- Handle
  Wall Insulation [35],                   !- Name
  MediumSmooth,                           !- Roughness
  0.0452,                                 !- Thickness {m}
  0.0432,                                 !- Conductivity {W/m-K}
  91,                                     !- Density {kg/m3}
  837;                                    !- Specific Heat {J/kg-K}

OS:Material,
  {25b698c3-6386-49d4-a242-f04d0616382b}, !- Handle
  Roof Insulation [21],                   !- Name
  Smooth,                                 !- Roughness
  0.2105,                                 !- Thickness {m}
  0.049,                                  !- Conductivity {W/m-K}
  265,                                    !- Density {kg/m3}
  836.8;                                  !- Specific Heat {J/kg-K}

OS:Material:NoMass,
  {312fb47f-f3d0-4cbd-9808-a5cf13c35ae6}, !- Handle
  F04 Wall air space resistance,          !- Name
  Smooth,                                 !- Roughness
  0.15;                                   !- Thermal Resistance {m2-K/W}

OS:Material:NoMass,
  {182ab887-dff3-48d7-8151-48b7cb8885a2}, !- Handle
  F05 Ceiling air space resistance,       !- Name
  Smooth,                                 !- Roughness
  0.18;                                   !- Thermal Resistance {m2-K/W}

OS:Material,
  {d3f17133-ce17-45f8-b7d1-a0e6858c2ef4}, !- Handle
  F08 Metal surface,                      !- Name
  Smooth,                                 !- Roughness
  0.0008,                                 !- Thickness {m}
  45.28,                                  !- Conductivity {W/m-K}
  7824,                                   !- Density {kg/m3}
  500;                                    !- Specific Heat {J/kg-K}

OS:Material,
  {7de243bc-41c5-407c-a30d-6719154198c9}, !- Handle
  Metal Roofing,                          !- Name
  Smooth,                                 !- Roughness
  0.0015,                                 !- Thickness {m}
  45.006,                                 !- Conductivity {W/m-K}
  7680,                                   !- Density {kg/m3}
  418.4;                                  !- Specific Heat {J/kg-K}

OS:Material,
  {c4ff3b2d-fb8b-4383-8769-e64b69ed93ea}, !- Handle
  Roof Insulation [25],                   !- Name
  MediumSmooth,                           !- Roughness
  0.263,                                  !- Thickness {m}
  0.049,                                  !- Conductivity {W/m-K}
  265,                                    !- Density {kg/m3}
  836.8;                                  !- Specific Heat {J/kg-K}

OS:Material,
  {84174df8-61bd-4b6d-9794-c895c81cbc40}, !- Handle
  Wall Insulation [42],                   !- Name
  MediumSmooth,                           !- Roughness
  0.0914,                                 !- Thickness {m}
  0.0432,                                 !- Conductivity {W/m-K}
  91,                                     !- Density {kg/m3}
  837;                                    !- Specific Heat {J/kg-K}

OS:Material,
  {dcfe0f55-d9a3-40d2-b9f0-7bf3a4239e02}, !- Handle
  Wall Insulation [36],                   !- Name
  MediumSmooth,                           !- Roughness
  0.0566,                                 !- Thickness {m}
  0.0432,                                 !- Conductivity {W/m-K}
  91,                                     !- Density {kg/m3}
  837;                                    !- Specific Heat {J/kg-K}

OS:Material,
  {02efbc4c-5764-4303-800c-22fed3cda851}, !- Handle
  Wall Insulation [40],                   !- Name
  MediumSmooth,                           !- Roughness
  0.0794,                                 !- Thickness {m}
  0.0432,                                 !- Conductivity {W/m-K}
  91,                                     !- Density {kg/m3}
  837;                                    !- Specific Heat {J/kg-K}

OS:Material,
  {f32d3201-8cc2-4b3b-a455-166945ea85ff}, !- Handle
  Wall Insulation [37],                   !- Name
  MediumSmooth,                           !- Roughness
  0.0681,                                 !- Thickness {m}
  0.0432,                                 !- Conductivity {W/m-K}
  91,                                     !- Density {kg/m3}
  837;                                    !- Specific Heat {J/kg-K}

OS:Material,
  {b507bd2f-7198-40f7-907d-e70a795ca2ff}, !- Handle
  Roof Insulation [26],                   !- Name
  MediumSmooth,                           !- Roughness
  0.2941,                                 !- Thickness {m}
  0.049,                                  !- Conductivity {W/m-K}
  265,                                    !- Density {kg/m3}
  836.8;                                  !- Specific Heat {J/kg-K}

OS:Material,
  {8eb8e3aa-e1a1-40b0-97b3-15882025a368}, !- Handle
  Wall Insulation [44],                   !- Name
  MediumSmooth,                           !- Roughness
  0.1104,                                 !- Thickness {m}
  0.0432,                                 !- Conductivity {W/m-K}
  91,                                     !- Density {kg/m3}
  837;                                    !- Specific Heat {J/kg-K}

OS:Material,
  {4e3c7a25-8ea0-4bc8-b172-c52fc83b60a2}, !- Handle
  MAT-CC05 4 HW CONCRETE,                 !- Name
  Rough,                                  !- Roughness
  0.1016,                                 !- Thickness {m}
  1.311,                                  !- Conductivity {W/m-K}
  2240,                                   !- Density {kg/m3}
  836.8;                                  !- Specific Heat {J/kg-K}

OS:Material:NoMass,
  {95bd6619-d40c-475f-a298-31cdd2f4b857}, !- Handle
  CP02 CARPET PAD,                        !- Name
  Smooth,                                 !- Roughness
  0.1;                                    !- Thermal Resistance {m2-K/W}

OS:Material,
  {2029c0fc-c176-45e8-a52e-c221f27c62e0}, !- Handle
  Wall Insulation [31],                   !- Name
  MediumSmooth,                           !- Roughness
  0.0337,                                 !- Thickness {m}
  0.0432,                                 !- Conductivity {W/m-K}
  91,                                     !- Density {kg/m3}
  837;                                    !- Specific Heat {J/kg-K}

OS:Material,
  {99024dd2-7bc4-408b-b312-0aceb1c30bc8}, !- Handle
  Roof Membrane,                          !- Name
  Smooth,                                 !- Roughness
  0.0095,                                 !- Thickness {m}
  0.16,                                   !- Conductivity {W/m-K}
  1121.29,                                !- Density {kg/m3}
  1460;                                   !- Specific Heat {J/kg-K}

OS:Material,
  {ee9bd239-2bd5-4faa-8764-3d00e7a47f52}, !- Handle
  Roof Insulation [18],                   !- Name
  Smooth,                                 !- Roughness
  0.1693,                                 !- Thickness {m}
  0.049,                                  !- Conductivity {W/m-K}
  265,                                    !- Density {kg/m3}
  836.8;                                  !- Specific Heat {J/kg-K}

OS:Material,
  {80ad0403-4d36-4682-908a-ada0a27966e0}, !- Handle
  8IN Concrete HW,                        !- Name
  Rough,                                  !- Roughness
  0.2033,                                 !- Thickness {m}
  1.7296,                                 !- Conductivity {W/m-K}
  2243,                                   !- Density {kg/m3}
  837;                                    !- Specific Heat {J/kg-K}

OS:Material,
  {5053d2f5-9743-40a3-8f97-4da1f0de1d36}, !- Handle
  1IN Stucco,                             !- Name
  MediumRough,                            !- Roughness
  0.0253,                                 !- Thickness {m}
  0.6918,                                 !- Conductivity {W/m-K}
  1858,                                   !- Density {kg/m3}
  837;                                    !- Specific Heat {J/kg-K}

OS:Material,
  {913f1a91-2b57-4305-bc61-2fc3e60b34d2}, !- Handle
  1/2IN Gypsum,                           !- Name
  MediumSmooth,                           !- Roughness
  0.0127,                                 !- Thickness {m}
  0.16,                                   !- Conductivity {W/m-K}
  784.9,                                  !- Density {kg/m3}
  830;                                    !- Specific Heat {J/kg-K}

OS:Construction,
  {a2479017-d2b9-41a4-911d-f008119234cb}, !- Handle
  Interior Floor,                         !- Name
  {5a0d34ef-94f6-4bf0-9ca5-77d8adfe31ff}, !- Surface Rendering Name
  {eec744c8-2526-4cbe-ae10-0a6084c165da}; !- Layer 1

OS:Construction,
  {94d8b6e1-5bac-461e-9c19-b38b8d1d350b}, !- Handle
  Interior Wall,                          !- Name
  {8b9c7e7e-d9b6-4af8-bfaf-c2428a06a17b}, !- Surface Rendering Name
  {8a61da70-00c4-4f11-83a6-4a0be20ab374}; !- Layer 1

OS:Construction,
  {ccf3f9ce-7073-4a15-8c8c-939563200667}, !- Handle
  Interior Ceiling,                       !- Name
  {ee55c2fc-8418-4851-95f9-0eb452c0ab02}, !- Surface Rendering Name
  {96317332-349e-496a-a8f8-750aeeda7316}; !- Layer 1

OS:Construction,
  {423f20c6-3940-4d3a-867d-0e9872c145ca}, !- Handle
  Interior Door,                          !- Name
  {ae056a30-c19d-4620-b03f-ff3665b4503a}, !- Surface Rendering Name
  {322324f2-ce4f-4fe8-994b-90bf58afaeb5}; !- Layer 1

OS:Construction,
  {766c67fb-b393-4ba6-a892-738ac7d7f568}, !- Handle
  Interior Partition,                     !- Name
  {fae8626b-dbaf-42e0-b870-503b38acbe7d}, !- Surface Rendering Name
  {322324f2-ce4f-4fe8-994b-90bf58afaeb5}; !- Layer 1

OS:Construction,
  {8063c78d-bccb-41b8-96d0-b39a5b68d504}, !- Handle
  ExtSlabCarpet 4in ClimateZone 1-8,      !- Name
  {fe8a67ce-21ad-43be-b900-b590355178a8}, !- Surface Rendering Name
  {4e3c7a25-8ea0-4bc8-b172-c52fc83b60a2}; !- Layer 1

OS:Construction,
  {fd46f4bf-89bb-4330-9b1f-38e949ac5f50}, !- Handle
  Exterior Door,                          !- Name
  {a07bec69-5f9e-4b32-b923-a2b72d6ca347}, !- Surface Rendering Name
  {d3f17133-ce17-45f8-b7d1-a0e6858c2ef4}; !- Layer 1

OS:Facility,
  {db8f54ac-db53-4c34-a565-320c62b15e8f}; !- Handle

OS:Building,
  {c697cf49-0005-4825-b8cb-ecb336faefcb}, !- Handle
  Building 1,                             !- Name
  ,                                       !- Building Sector Type
  0.522079983634796,                      !- North Axis {deg}
  ,                                       !- Nominal Floor to Floor Height {m}
  {7e3c917f-5ead-4ac1-87f9-62dbec15b8c7}, !- Space Type Name
  {323a274b-3d1a-41fa-a1ec-c9b7a1369f00}, !- Default Construction Set Name
  ,                                       !- Default Schedule Set Name
  ,                                       !- Standards Number of Stories
  ,                                       !- Standards Number of Above Ground Stories
  ,                                       !- Standards Building Type
  ,                                       !- Standards Number of Living Units
  ,                                       !- Relocatable
  ;                                       !- Nominal Floor to Ceiling Height {m}

OS:BuildingStory,
  {12b06b63-bff5-4c4e-900e-623196e150e7}, !- Handle
  Building Story 1,                       !- Name
  ,                                       !- Nominal Z Coordinate {m}
  ,                                       !- Nominal Floor to Floor Height {m}
  ,                                       !- Default Construction Set Name
  ,                                       !- Default Schedule Set Name
  {4cf53a9c-3d37-47ea-873f-43cd84d60302}; !- Group Rendering Name

OS:BuildingStory,
  {73f8096f-690f-44ea-bd66-82eae7066825}, !- Handle
  Building Story 4,                       !- Name
  ,                                       !- Nominal Z Coordinate {m}
  ,                                       !- Nominal Floor to Floor Height {m}
  ,                                       !- Default Construction Set Name
  ,                                       !- Default Schedule Set Name
  {835bb470-f773-4d22-9591-f8539328e8d0}; !- Group Rendering Name

OS:BuildingStory,
  {a1692da8-7b70-425f-9ae8-f891c00f103f}, !- Handle
  Building Story 3,                       !- Name
  ,                                       !- Nominal Z Coordinate {m}
  ,                                       !- Nominal Floor to Floor Height {m}
  ,                                       !- Default Construction Set Name
  ,                                       !- Default Schedule Set Name
  {ae3b784b-f3a7-484f-b548-56a5cd708a62}; !- Group Rendering Name

OS:BuildingStory,
  {74bbe170-b7e0-41f1-8900-2d6a76772074}, !- Handle
  Building Story 5,                       !- Name
  ,                                       !- Nominal Z Coordinate {m}
  ,                                       !- Nominal Floor to Floor Height {m}
  ,                                       !- Default Construction Set Name
  ,                                       !- Default Schedule Set Name
  {90223494-d589-4ace-9064-c0af5621d433}; !- Group Rendering Name

OS:BuildingStory,
  {cf6eea4c-181d-4672-9dc2-8f140d7f8e67}, !- Handle
  Building Story 2,                       !- Name
  ,                                       !- Nominal Z Coordinate {m}
  ,                                       !- Nominal Floor to Floor Height {m}
  ,                                       !- Default Construction Set Name
  ,                                       !- Default Schedule Set Name
  {dadfcd8b-a562-4f2b-b101-c3ef0607dabe}; !- Group Rendering Name

OS:BuildingStory,
  {e9baa214-4c3b-4e1d-8188-f49b75b3189b}, !- Handle
  Building Story 6,                       !- Name
  ,                                       !- Nominal Z Coordinate {m}
  ,                                       !- Nominal Floor to Floor Height {m}
  ,                                       !- Default Construction Set Name
  ,                                       !- Default Schedule Set Name
  {e298d965-83e2-40e4-ac36-434069573c08}; !- Group Rendering Name

OS:Node,
  {1c4b4d2e-ee8e-46e8-8886-caccb919c6ed}, !- Handle
  {84dfe2f1-7e62-49c3-ae71-0ef813fdd7a7}, !- Name
  {6e98b921-c7f5-4670-96ec-6a5d51f6466e}, !- Inlet Port
  ;                                       !- Outlet Port

OS:Connection,
  {6e98b921-c7f5-4670-96ec-6a5d51f6466e}, !- Handle
  {8d41daf7-228c-4dbe-8fcd-4a1b99ea2b8f}, !- Name
  ,                                       !- Source Object
  11,                                     !- Outlet Port
  {1c4b4d2e-ee8e-46e8-8886-caccb919c6ed}, !- Target Object
  2;                                      !- Inlet Port

OS:Node,
  {79b5bc74-a5b4-4eae-973b-1aaf0d00b49d}, !- Handle
  {a774b57f-3bdb-4b99-a204-1d9c82a451a6}, !- Name
  {a153c2bc-abeb-4b2d-b289-238c3d23fee8}, !- Inlet Port
  ;                                       !- Outlet Port

OS:Connection,
  {a153c2bc-abeb-4b2d-b289-238c3d23fee8}, !- Handle
  {b52833ae-6b33-4f97-8295-0bd61b7eb79b}, !- Name
  ,                                       !- Source Object
  11,                                     !- Outlet Port
  {79b5bc74-a5b4-4eae-973b-1aaf0d00b49d}, !- Target Object
  2;                                      !- Inlet Port

OS:Node,
  {37fd5de5-7b21-4332-89a4-db2b554fc558}, !- Handle
  {379ee571-1dbf-4eec-a8ac-57afc483198d}, !- Name
  {df89a31e-b647-4895-85d3-44e7ae80a051}, !- Inlet Port
  ;                                       !- Outlet Port

OS:Connection,
  {df89a31e-b647-4895-85d3-44e7ae80a051}, !- Handle
  {206288aa-25b7-4b95-91ce-b6027bd64494}, !- Name
  ,                                       !- Source Object
  11,                                     !- Outlet Port
  {37fd5de5-7b21-4332-89a4-db2b554fc558}, !- Target Object
  2;                                      !- Inlet Port

OS:Node,
  {1e95a9d3-7dd8-4865-a367-7217ee980237}, !- Handle
  {a309b482-7a82-4fa1-80e9-2b6c25c5c888}, !- Name
  {41a78d6f-1621-4cf0-937f-62309314aca0}, !- Inlet Port
  ;                                       !- Outlet Port

OS:Connection,
  {41a78d6f-1621-4cf0-937f-62309314aca0}, !- Handle
  {d43a44ae-b99b-43d1-a76e-add3f78a6bce}, !- Name
  ,                                       !- Source Object
  11,                                     !- Outlet Port
  {1e95a9d3-7dd8-4865-a367-7217ee980237}, !- Target Object
  2;                                      !- Inlet Port

OS:Node,
  {cf6326d7-1453-4f86-9f3a-9f21c71e3054}, !- Handle
  {b985841b-cc3d-4409-847d-0ce99e7f08fb}, !- Name
  {66eb543a-5fcb-44a5-83c1-ea6c97804648}, !- Inlet Port
  ;                                       !- Outlet Port

OS:Connection,
  {66eb543a-5fcb-44a5-83c1-ea6c97804648}, !- Handle
  {a3a1e2ef-eec9-4dab-993f-1a770ade8033}, !- Name
  ,                                       !- Source Object
  11,                                     !- Outlet Port
  {cf6326d7-1453-4f86-9f3a-9f21c71e3054}, !- Target Object
  2;                                      !- Inlet Port

OS:Node,
  {ad8e6d23-c8b4-4077-8a60-636b624e97cf}, !- Handle
  {1eeed61c-e466-437f-a5cb-eaecf978c7b5}, !- Name
  {04f8fb6b-d4c9-4fd4-a841-e2f4f92bd056}, !- Inlet Port
  ;                                       !- Outlet Port

OS:Connection,
  {04f8fb6b-d4c9-4fd4-a841-e2f4f92bd056}, !- Handle
  {4e56adaf-cc92-41f5-b02d-885e6cdf8eb5}, !- Name
  ,                                       !- Source Object
  11,                                     !- Outlet Port
  {ad8e6d23-c8b4-4077-8a60-636b624e97cf}, !- Target Object
  2;                                      !- Inlet Port

OS:Node,
  {75e8d834-2d69-40bf-b4db-da58dc53eac8}, !- Handle
  {d8b24e42-dec6-4363-ae7b-ebc0b0220ff1}, !- Name
  {a4593e92-c75f-4584-aced-9a6bf28532c3}, !- Inlet Port
  ;                                       !- Outlet Port

OS:Connection,
  {a4593e92-c75f-4584-aced-9a6bf28532c3}, !- Handle
  {1fa7d8c3-4a81-4aae-bb62-b52581b6582f}, !- Name
  ,                                       !- Source Object
  11,                                     !- Outlet Port
  {75e8d834-2d69-40bf-b4db-da58dc53eac8}, !- Target Object
  2;                                      !- Inlet Port

OS:Space,
  {55954f4d-7644-4f1d-9b5a-ebdf0640d99a}, !- Handle
  L2-OFFICE-2,                            !- Name
  {1240e9ca-a62b-4cce-bd86-c4c09d83b145}, !- Space Type Name
  ,                                       !- Default Construction Set Name
  ,                                       !- Default Schedule Set Name
  -0,                                     !- Direction of Relative North {deg}
  0,                                      !- X Origin {m}
  0,                                      !- Y Origin {m}
  -3.959225,                              !- Z Origin {m}
  {74bbe170-b7e0-41f1-8900-2d6a76772074}, !- Building Story Name
  {d940d230-cc84-4b12-9553-e9a5b341d3f9}, !- Thermal Zone Name
  ,                                       !- Part of Total Floor Area
  ,                                       !- Design Specification Outdoor Air Object Name
  ;                                       !- Building Unit Name

OS:ThermalZone,
  {d940d230-cc84-4b12-9553-e9a5b341d3f9}, !- Handle
  Thermal Zone: L2-OFFICE-2,              !- Name
  ,                                       !- Multiplier
  ,                                       !- Ceiling Height {m}
  ,                                       !- Volume {m3}
  ,                                       !- Floor Area {m2}
  ,                                       !- Zone Inside Convection Algorithm
  ,                                       !- Zone Outside Convection Algorithm
  ,                                       !- Zone Conditioning Equipment List Name
  {c7d1dcd0-e656-4729-8585-3667af1d7779}, !- Zone Air Inlet Port List
  {87e0017f-5f52-4469-b83c-459b108c3061}, !- Zone Air Exhaust Port List
  {103d4216-3d36-4fce-b1e5-a0b94805b609}, !- Zone Air Node Name
  {ddceaa39-0ed0-4b66-8883-0b52ddd34f92}, !- Zone Return Air Node Name
  ,                                       !- Primary Daylighting Control Name
  ,                                       !- Fraction of Zone Controlled by Primary Daylighting Control
  ,                                       !- Secondary Daylighting Control Name
  ,                                       !- Fraction of Zone Controlled by Secondary Daylighting Control
  ,                                       !- Illuminance Map Name
  {4e26ba3f-cdaf-4d8c-a80e-b5d952a460c9}, !- Group Rendering Name
  {fbbfac96-9ec9-4100-b686-4148b870b43a}, !- Thermostat Name
  No;                                     !- Use Ideal Air Loads

OS:Node,
  {28285712-e5df-4758-a109-c1adc0a83137}, !- Handle
  {2d3934c8-4f83-4bc4-9295-8fae37593ddb}, !- Name
  {103d4216-3d36-4fce-b1e5-a0b94805b609}, !- Inlet Port
  ;                                       !- Outlet Port

OS:Connection,
  {103d4216-3d36-4fce-b1e5-a0b94805b609}, !- Handle
  {07417364-118f-4a83-b6eb-ca545e37a485}, !- Name
  {d940d230-cc84-4b12-9553-e9a5b341d3f9}, !- Source Object
  11,                                     !- Outlet Port
  {28285712-e5df-4758-a109-c1adc0a83137}, !- Target Object
  2;                                      !- Inlet Port

OS:PortList,
  {c7d1dcd0-e656-4729-8585-3667af1d7779}, !- Handle
  {1cb76139-83af-4b87-bfcd-9774c2a06107}, !- Name
  {d940d230-cc84-4b12-9553-e9a5b341d3f9}, !- HVAC Component
  {d8761366-9b07-44b9-9027-27cbeef38739}, !- Port 1
  {479fe3d1-f3c3-4eb7-81e6-6ac846f7bd07}; !- Port 2

OS:PortList,
  {87e0017f-5f52-4469-b83c-459b108c3061}, !- Handle
  {c76cbe01-9b68-4595-bbbf-58e4286ee43e}, !- Name
  {d940d230-cc84-4b12-9553-e9a5b341d3f9}, !- HVAC Component
  {376fcf5b-28b5-4221-891a-128b4a6aaed4}; !- Port 1

OS:Sizing:Zone,
  {3a5e9d63-069d-4aa8-ae59-53df86cc9f52}, !- Handle
  {d940d230-cc84-4b12-9553-e9a5b341d3f9}, !- Zone or ZoneList Name
  SupplyAirTemperature,                   !- Zone Cooling Design Supply Air Temperature Input Method
  14,                                     !- Zone Cooling Design Supply Air Temperature {C}
  11.11,                                  !- Zone Cooling Design Supply Air Temperature Difference {deltaC}
  SupplyAirTemperature,                   !- Zone Heating Design Supply Air Temperature Input Method
  40,                                     !- Zone Heating Design Supply Air Temperature {C}
  11.11,                                  !- Zone Heating Design Supply Air Temperature Difference {deltaC}
  0.0085,                                 !- Zone Cooling Design Supply Air Humidity Ratio {kg-H2O/kg-air}
  0.008,                                  !- Zone Heating Design Supply Air Humidity Ratio {kg-H2O/kg-air}
  ,                                       !- Zone Heating Sizing Factor
  ,                                       !- Zone Cooling Sizing Factor
  DesignDay,                              !- Cooling Design Air Flow Method
  ,                                       !- Cooling Design Air Flow Rate {m3/s}
  ,                                       !- Cooling Minimum Air Flow per Zone Floor Area {m3/s-m2}
  ,                                       !- Cooling Minimum Air Flow {m3/s}
  ,                                       !- Cooling Minimum Air Flow Fraction
  DesignDay,                              !- Heating Design Air Flow Method
  ,                                       !- Heating Design Air Flow Rate {m3/s}
  ,                                       !- Heating Maximum Air Flow per Zone Floor Area {m3/s-m2}
  ,                                       !- Heating Maximum Air Flow {m3/s}
  ,                                       !- Heating Maximum Air Flow Fraction
  ,                                       !- Design Zone Air Distribution Effectiveness in Cooling Mode
  ,                                       !- Design Zone Air Distribution Effectiveness in Heating Mode
  No,                                     !- Account for Dedicated Outdoor Air System
  NeutralSupplyAir,                       !- Dedicated Outdoor Air System Control Strategy
  autosize,                               !- Dedicated Outdoor Air Low Setpoint Temperature for Design {C}
  autosize;                               !- Dedicated Outdoor Air High Setpoint Temperature for Design {C}

OS:ZoneHVAC:EquipmentList,
  {d01c45a9-99b2-424f-9c95-5b8d210ad45e}, !- Handle
  {3e72c158-eec8-4cf5-a48f-9de2d51e5156}, !- Name
  {d940d230-cc84-4b12-9553-e9a5b341d3f9}, !- Thermal Zone
  {f9e19c6c-119c-4f36-92fc-74182de8845a}, !- Zone Equipment 1
  1,                                      !- Zone Equipment Cooling Sequence 1
  1,                                      !- Zone Equipment Heating or No-Load Sequence 1
  {df38ef38-fdef-4f4c-bb47-45e639b2f592}, !- Zone Equipment 2
  2,                                      !- Zone Equipment Cooling Sequence 2
  2;                                      !- Zone Equipment Heating or No-Load Sequence 2

OS:Node,
  {40d225eb-d074-496d-8dd9-eb9c74bffa56}, !- Handle
  {84696293-2a77-46b3-a988-b24a25ce08a6}, !- Name
  {0c1bee94-456a-4684-9047-5ae1731ed865}, !- Inlet Port
  ;                                       !- Outlet Port

OS:Connection,
  {0c1bee94-456a-4684-9047-5ae1731ed865}, !- Handle
  {c3e3617e-bf0a-4ee9-bb13-3b4bcb515597}, !- Name
  ,                                       !- Source Object
  11,                                     !- Outlet Port
  {40d225eb-d074-496d-8dd9-eb9c74bffa56}, !- Target Object
  2;                                      !- Inlet Port

OS:Node,
  {7a7c0d81-275e-4e2d-8065-530d8772377b}, !- Handle
  {c7b24384-3683-4427-ae98-b389439d47d0}, !- Name
  {a5f2a822-5d43-4ca3-883a-51c96f0161f5}, !- Inlet Port
  ;                                       !- Outlet Port

OS:Connection,
  {a5f2a822-5d43-4ca3-883a-51c96f0161f5}, !- Handle
  {0e5227bc-095a-4533-9710-6ffa17efd777}, !- Name
  ,                                       !- Source Object
  11,                                     !- Outlet Port
  {7a7c0d81-275e-4e2d-8065-530d8772377b}, !- Target Object
  2;                                      !- Inlet Port

OS:Node,
  {04aa5a05-e988-40a9-b3fd-0d9e395a7e90}, !- Handle
  {e38bf20f-1632-43d9-99b8-8dd34b52a5be}, !- Name
  {9c8c9090-9908-41b3-ba4e-ec25400d6527}, !- Inlet Port
  ;                                       !- Outlet Port

OS:Connection,
  {9c8c9090-9908-41b3-ba4e-ec25400d6527}, !- Handle
  {dec3a412-35b1-4859-90db-df047cc6c130}, !- Name
  ,                                       !- Source Object
  11,                                     !- Outlet Port
  {04aa5a05-e988-40a9-b3fd-0d9e395a7e90}, !- Target Object
  2;                                      !- Inlet Port

OS:Node,
  {e20e4d8a-39da-4f4f-a07f-21f745dc6419}, !- Handle
  {ef8799f0-525d-4bdd-91f4-efbc3cd4c528}, !- Name
  {31c8f5da-ca8f-4c55-a144-8177cc211def}, !- Inlet Port
  ;                                       !- Outlet Port

OS:Connection,